
 OpenBabel05292410563D

 25 25  0  0  1  0  0  0  0  0999 V2000
   -3.6452    9.3347   -1.4717 H   0  0  0  0  0  0  0  0  0  0  0  0
   -4.1352    9.6399   -2.2532 O   0  0  0  0  0  0  0  0  0  0  0  0
   -3.8275   11.0207   -2.3625 C   0  0  2  0  0  0  0  0  0  0  0  0
   -2.7416   11.1196   -2.4838 H   0  0  0  0  0  0  0  0  0  0  0  0
   -4.2401   11.6593   -1.1612 O   0  0  0  0  0  0  0  0  0  0  0  0
   -3.9648   13.0766   -1.1748 C   0  0  2  0  0  0  0  0  0  0  0  0
   -2.8793   13.2106   -1.2757 H   0  0  0  0  0  0  0  0  0  0  0  0
   -4.3824   13.6427    0.1862 C   0  0  0  0  0  0  0  0  0  0  0  0
   -5.4519   13.4922    0.3667 H   0  0  0  0  0  0  0  0  0  0  0  0
   -4.1553   14.7095    0.2682 H   0  0  0  0  0  0  0  0  0  0  0  0
   -3.6765   12.9564    1.2238 O   0  0  0  0  0  0  0  0  0  0  0  0
   -3.8356   12.0075    1.0613 H   0  0  0  0  0  0  0  0  0  0  0  0
   -4.7091   13.7721   -2.3222 C   0  0  1  0  0  0  0  0  0  0  0  0
   -5.7941   13.6999   -2.1746 H   0  0  0  0  0  0  0  0  0  0  0  0
   -4.3805   15.1604   -2.3852 O   0  0  0  0  0  0  0  0  0  0  0  0
   -4.7534   15.4729   -3.2357 H   0  0  0  0  0  0  0  0  0  0  0  0
   -4.3337   13.1101   -3.6514 C   0  0  2  0  0  0  0  0  0  0  0  0
   -3.2830   13.3226   -3.8877 H   0  0  0  0  0  0  0  0  0  0  0  0
   -5.1093   13.6971   -4.7065 O   0  0  0  0  0  0  0  0  0  0  0  0
   -5.0846   13.0338   -5.4291 H   0  0  0  0  0  0  0  0  0  0  0  0
   -4.5829   11.5991   -3.5840 C   0  0  1  0  0  0  0  0  0  0  0  0
   -5.6597   11.4306   -3.4487 H   0  0  0  0  0  0  0  0  0  0  0  0
   -4.2377   10.9691   -4.8833 N   0  0  0  0  0  0  0  0  0  0  0  0
   -3.2236   10.9717   -5.0039 H   0  0  0  0  0  0  0  0  0  0  0  0
   -4.4751    9.9745   -4.7929 H   0  0  0  0  0  0  0  0  0  0  0  0
  2  3  1  0  0  0  0
  2  1  1  0  0  0  0
  3 21  1  6  0  0  0
  3  5  1  0  0  0  0
  4  3  1  0  0  0  0
  6 13  1  6  0  0  0
  6  5  1  0  0  0  0
  6  8  1  0  0  0  0
  7  6  1  0  0  0  0
  8 10  1  0  0  0  0
  8  9  1  0  0  0  0
  8 11  1  0  0  0  0
 12 11  1  0  0  0  0
 13 17  1  6  0  0  0
 13 14  1  0  0  0  0
 15 13  1  0  0  0  0
 16 15  1  0  0  0  0
 17 21  1  1  0  0  0
 18 17  1  0  0  0  0
 19 17  1  0  0  0  0
 20 19  1  0  0  0  0
 21 22  1  1  0  0  0
 23 21  1  0  0  0  0
 23 25  1  0  0  0  0
 24 23  1  0  0  0  0
M  END
