
 OpenBabel05292410543D

 30 30  0  0  1  0  0  0  0  0999 V2000
   -3.7670    9.0900   -1.5620 H   0  0  0  0  0  0  0  0  0  0  0  0
   -4.1720    9.5830   -2.2790 O   0  0  0  0  0  0  0  0  0  0  0  0
   -3.6250   10.8530   -2.5330 C   0  0  2  0  0  0  0  0  0  0  0  0
   -3.7110   11.5100   -1.6680 H   0  0  0  0  0  0  0  0  0  0  0  0
   -4.4170   11.4780   -3.7200 C   0  0  1  0  0  0  0  0  0  0  0  0
   -4.0840   12.5140   -3.8120 H   0  0  0  0  0  0  0  0  0  0  0  0
   -4.1120   10.7670   -5.0600 C   0  0  2  0  0  0  0  0  0  0  0  0
   -4.5560    9.7700   -5.0360 H   0  0  0  0  0  0  0  0  0  0  0  0
   -2.5940   10.6430   -5.3240 C   0  0  1  0  0  0  0  0  0  0  0  0
   -2.1890   11.6330   -5.5400 H   0  0  0  0  0  0  0  0  0  0  0  0
   -1.8360   10.0170   -4.1330 C   0  0  1  0  0  0  0  0  0  0  0  0
   -2.1390    8.9710   -4.0500 H   0  0  0  0  0  0  0  0  0  0  0  0
   -0.3040   10.0370   -4.3210 C   0  0  0  0  0  0  0  0  0  0  0  0
   -0.0250    9.4370   -5.1880 H   0  0  0  0  0  0  0  0  0  0  0  0
    0.1780    9.6000   -3.4470 H   0  0  0  0  0  0  0  0  0  0  0  0
    0.1940   11.3800   -4.5040 O   0  0  0  0  0  0  0  0  0  0  0  0
    1.1480   11.3560   -4.6110 H   0  0  0  0  0  0  0  0  0  0  0  0
   -2.2050   10.6840   -2.8410 O   0  0  0  0  0  0  0  0  0  0  0  0
   -2.4120    9.7960   -6.4840 O   0  0  0  0  0  0  0  0  0  0  0  0
   -3.0120   10.1370   -7.1610 H   0  0  0  0  0  0  0  0  0  0  0  0
   -4.7040   11.5100   -6.1650 O   0  0  0  0  0  0  0  0  0  0  0  0
   -5.3300   12.1760   -5.8190 H   0  0  0  0  0  0  0  0  0  0  0  0
   -5.8760   11.5000   -3.4410 N   0  0  0  0  0  0  0  0  0  0  0  0
   -6.2260   10.7540   -2.8590 H   0  0  0  0  0  0  0  0  0  0  0  0
   -6.7370   12.3860   -3.9550 C   0  0  0  0  0  0  0  0  0  0  0  0
   -8.2000   12.3100   -3.4680 C   0  0  0  0  0  0  0  0  0  0  0  0
   -8.3270   11.5320   -2.7110 H   0  0  0  0  0  0  0  0  0  0  0  0
   -8.4880   13.2700   -3.0360 H   0  0  0  0  0  0  0  0  0  0  0  0
   -8.8520   12.0900   -4.3130 H   0  0  0  0  0  0  0  0  0  0  0  0
   -6.3810   13.2150   -4.7880 O   0  0  0  0  0  0  0  0  0  0  0  0
  2  3  1  0  0  0  0
  2  1  1  0  0  0  0
  3  5  1  6  0  0  0
  3  4  1  0  0  0  0
  5  7  1  6  0  0  0
  5 23  1  0  0  0  0
  6  5  1  0  0  0  0
  7  9  1  6  0  0  0
  7  8  1  0  0  0  0
  9 11  1  1  0  0  0
 10  9  1  0  0  0  0
 11 12  1  1  0  0  0
 11 18  1  0  0  0  0
 13 11  1  0  0  0  0
 13 15  1  0  0  0  0
 14 13  1  0  0  0  0
 16 13  1  0  0  0  0
 17 16  1  0  0  0  0
 18  3  1  0  0  0  0
 19  9  1  0  0  0  0
 20 19  1  0  0  0  0
 21 22  1  0  0  0  0
 21  7  1  0  0  0  0
 23 24  1  0  0  0  0
 25 26  1  0  0  0  0
 25 23  1  0  0  0  0
 26 28  1  0  0  0  0
 26 27  1  0  0  0  0
 29 26  1  0  0  0  0
 30 25  2  0  0  0  0
M  END
