
 OpenBabel05292411123D

 30 30  0  0  1  0  0  0  0  0999 V2000
   -3.7670    9.0900   -1.5620 H   0  0  0  0  0  0  0  0  0  0  0  0
   -4.1720    9.5830   -2.2790 O   0  0  0  0  0  0  0  0  0  0  0  0
   -3.8270   10.9380   -2.3880 C   0  0  2  0  0  0  0  0  0  0  0  0
   -2.7520   11.0440   -2.5390 H   0  0  0  0  0  0  0  0  0  0  0  0
   -4.1950   11.6310   -1.1470 O   0  0  0  0  0  0  0  0  0  0  0  0
   -3.9630   13.1060   -1.1500 C   0  0  2  0  0  0  0  0  0  0  0  0
   -2.8960   13.2850   -1.3030 H   0  0  0  0  0  0  0  0  0  0  0  0
   -4.3690   13.6940    0.2140 C   0  0  0  0  0  0  0  0  0  0  0  0
   -5.4330   13.5310    0.3940 H   0  0  0  0  0  0  0  0  0  0  0  0
   -4.1760   14.7660    0.2410 H   0  0  0  0  0  0  0  0  0  0  0  0
   -3.6130   13.0590    1.2610 O   0  0  0  0  0  0  0  0  0  0  0  0
   -3.7360   12.1090    1.1900 H   0  0  0  0  0  0  0  0  0  0  0  0
   -4.7500   13.7280   -2.3210 C   0  0  1  0  0  0  0  0  0  0  0  0
   -5.8220   13.6180   -2.1400 H   0  0  0  0  0  0  0  0  0  0  0  0
   -4.4320   15.1340   -2.3950 O   0  0  0  0  0  0  0  0  0  0  0  0
   -4.8640   15.4770   -3.1890 H   0  0  0  0  0  0  0  0  0  0  0  0
   -4.3840   13.0690   -3.6720 C   0  0  2  0  0  0  0  0  0  0  0  0
   -3.3310   13.2660   -3.8860 H   0  0  0  0  0  0  0  0  0  0  0  0
   -5.1810   13.7000   -4.7220 O   0  0  0  0  0  0  0  0  0  0  0  0
   -4.8820   13.4170   -5.5940 H   0  0  0  0  0  0  0  0  0  0  0  0
   -4.6010   11.5310   -3.6140 C   0  0  1  0  0  0  0  0  0  0  0  0
   -5.6650   11.3450   -3.4550 H   0  0  0  0  0  0  0  0  0  0  0  0
   -4.1680   10.8880   -4.8800 N   0  0  0  0  0  0  0  0  0  0  0  0
   -3.1820   10.7430   -5.0160 H   0  0  0  0  0  0  0  0  0  0  0  0
   -5.0190   10.3180   -5.7380 C   0  0  0  0  0  0  0  0  0  0  0  0
   -6.2350   10.3900   -5.5950 O   0  0  0  0  0  0  0  0  0  0  0  0
   -4.3940    9.6000   -6.9510 C   0  0  0  0  0  0  0  0  0  0  0  0
   -3.4740    9.0870   -6.6620 H   0  0  0  0  0  0  0  0  0  0  0  0
   -5.0920    8.8640   -7.3510 H   0  0  0  0  0  0  0  0  0  0  0  0
   -4.1680   10.3330   -7.7270 H   0  0  0  0  0  0  0  0  0  0  0  0
  2  3  1  0  0  0  0
  2  1  1  0  0  0  0
  3 21  1  6  0  0  0
  3  5  1  0  0  0  0
  4  3  1  0  0  0  0
  6 13  1  6  0  0  0
  6  5  1  0  0  0  0
  6  8  1  0  0  0  0
  7  6  1  0  0  0  0
  8 10  1  0  0  0  0
  8  9  1  0  0  0  0
  8 11  1  0  0  0  0
 12 11  1  0  0  0  0
 13 17  1  6  0  0  0
 13 14  1  0  0  0  0
 15 13  1  0  0  0  0
 16 15  1  0  0  0  0
 17 21  1  1  0  0  0
 18 17  1  0  0  0  0
 19 17  1  0  0  0  0
 20 19  1  0  0  0  0
 21 22  1  1  0  0  0
 23 21  1  0  0  0  0
 24 23  1  0  0  0  0
 25 26  2  0  0  0  0
 25 23  1  0  0  0  0
 27 28  1  0  0  0  0
 27 25  1  0  0  0  0
 29 27  1  0  0  0  0
 30 27  1  0  0  0  0
M  END
