
 OpenBabel05292410013D

 24 24  0  0  1  0  0  0  0  0999 V2000
   -3.7670    9.0900   -1.5620 H   0  0  0  0  0  0  0  0  0  0  0  0
   -4.1720    9.5830   -2.2790 O   0  0  0  0  0  0  0  0  0  0  0  0
   -4.1870    8.5630   -3.2330 C   0  0  2  0  0  0  0  0  0  0  0  0
   -3.1720    8.2210   -3.4370 H   0  0  0  0  0  0  0  0  0  0  0  0
   -4.8210    9.1320   -4.5350 C   0  0  1  0  0  0  0  0  0  0  0  0
   -4.6930    8.3850   -5.3190 H   0  0  0  0  0  0  0  0  0  0  0  0
   -6.3310    9.3970   -4.3580 C   0  0  2  0  0  0  0  0  0  0  0  0
   -6.4710   10.2390   -3.6760 H   0  0  0  0  0  0  0  0  0  0  0  0
   -7.0800    8.1580   -3.8130 C   0  0  1  0  0  0  0  0  0  0  0  0
   -7.0580    7.3620   -4.5600 H   0  0  0  0  0  0  0  0  0  0  0  0
   -6.4400    7.6480   -2.5040 C   0  0  1  0  0  0  0  0  0  0  0  0
   -6.5730    8.4140   -1.7370 H   0  0  0  0  0  0  0  0  0  0  0  0
   -7.0830    6.3360   -2.0020 C   0  0  0  0  0  0  0  0  0  0  0  0
   -8.1710    6.3990   -2.0440 H   0  0  0  0  0  0  0  0  0  0  0  0
   -6.7710    5.5020   -2.6310 H   0  0  0  0  0  0  0  0  0  0  0  0
   -6.7030    6.0680   -0.6340 O   0  0  0  0  0  0  0  0  0  0  0  0
   -7.2230    6.6150   -0.0410 H   0  0  0  0  0  0  0  0  0  0  0  0
   -4.9690    7.4420   -2.7130 O   0  0  0  0  0  0  0  0  0  0  0  0
   -8.4610    8.5180   -3.5540 O   0  0  0  0  0  0  0  0  0  0  0  0
   -8.8000    8.9470   -4.3520 H   0  0  0  0  0  0  0  0  0  0  0  0
   -6.8930    9.7470   -5.6500 O   0  0  0  0  0  0  0  0  0  0  0  0
   -6.2770   10.3570   -6.0770 H   0  0  0  0  0  0  0  0  0  0  0  0
   -4.1440   10.3560   -4.9710 O   0  0  0  0  0  0  0  0  0  0  0  0
   -3.9400   10.8990   -4.1980 H   0  0  0  0  0  0  0  0  0  0  0  0
  2  3  1  0  0  0  0
  2  1  1  0  0  0  0
  3  5  1  6  0  0  0
  3 18  1  0  0  0  0
  4  3  1  0  0  0  0
  5  7  1  1  0  0  0
  6  5  1  0  0  0  0
  7  9  1  1  0  0  0
  7  8  1  0  0  0  0
  9 19  1  0  0  0  0
  9 11  1  1  0  0  0
 10  9  1  0  0  0  0
 11 13  1  0  0  0  0
 11 12  1  1  0  0  0
 13 16  1  0  0  0  0
 14 13  1  0  0  0  0
 15 13  1  0  0  0  0
 16 17  1  0  0  0  0
 18 11  1  0  0  0  0
 20 19  1  0  0  0  0
 21  7  1  0  0  0  0
 22 21  1  0  0  0  0
 23  5  1  0  0  0  0
 23 24  1  0  0  0  0
M  END
