
 OpenBabel05282415183D

 24 24  0  0  1  0  0  0  0  0999 V2000
   -3.7670    9.0900   -1.5620 H   0  0  0  0  0  0  0  0  0  0  0  0
   -4.1720    9.5830   -2.2790 O   0  0  0  0  0  0  0  0  0  0  0  0
   -3.8310   10.9160   -2.3250 C   0  0  2  0  0  0  0  0  0  0  0  0
   -2.7520   11.0220   -2.4460 H   0  0  0  0  0  0  0  0  0  0  0  0
   -4.2300   11.5540   -1.0630 O   0  0  0  0  0  0  0  0  0  0  0  0
   -4.0860   13.0410   -1.0070 C   0  0  2  0  0  0  0  0  0  0  0  0
   -3.0290   13.2840   -1.1360 H   0  0  0  0  0  0  0  0  0  0  0  0
   -4.5250   13.5550    0.3760 C   0  0  0  0  0  0  0  0  0  0  0  0
   -5.5500   13.2530    0.5950 H   0  0  0  0  0  0  0  0  0  0  0  0
   -4.4690   14.6430    0.4120 H   0  0  0  0  0  0  0  0  0  0  0  0
   -3.6490   13.0110    1.3770 O   0  0  0  0  0  0  0  0  0  0  0  0
   -3.6960   12.0520    1.3200 H   0  0  0  0  0  0  0  0  0  0  0  0
   -4.8630   13.6950   -2.1710 C   0  0  2  0  0  0  0  0  0  0  0  0
   -4.6630   14.7670   -2.1830 H   0  0  0  0  0  0  0  0  0  0  0  0
   -6.2860   13.4960   -1.9790 O   0  0  0  0  0  0  0  0  0  0  0  0
   -6.7290   13.8150   -2.7770 H   0  0  0  0  0  0  0  0  0  0  0  0
   -4.4310   13.0810   -3.5230 C   0  0  2  0  0  0  0  0  0  0  0  0
   -3.3820   13.3330   -3.6900 H   0  0  0  0  0  0  0  0  0  0  0  0
   -5.2090   13.6870   -4.5920 O   0  0  0  0  0  0  0  0  0  0  0  0
   -4.9540   13.2520   -5.4180 H   0  0  0  0  0  0  0  0  0  0  0  0
   -4.5790   11.5410   -3.5410 C   0  0  1  0  0  0  0  0  0  0  0  0
   -5.6360   11.2720   -3.4990 H   0  0  0  0  0  0  0  0  0  0  0  0
   -4.0130   11.0310   -4.7850 O   0  0  0  0  0  0  0  0  0  0  0  0
   -4.0500   10.0670   -4.7520 H   0  0  0  0  0  0  0  0  0  0  0  0
  2  3  1  0  0  0  0
  2  1  1  0  0  0  0
  3 21  1  6  0  0  0
  3  5  1  0  0  0  0
  4  3  1  0  0  0  0
  5  6  1  0  0  0  0
  6 13  1  6  0  0  0
  6  8  1  0  0  0  0
  7  6  1  0  0  0  0
  8 10  1  0  0  0  0
  8  9  1  0  0  0  0
  8 11  1  0  0  0  0
 12 11  1  0  0  0  0
 13 17  1  6  0  0  0
 13 15  1  0  0  0  0
 14 13  1  0  0  0  0
 16 15  1  0  0  0  0
 17 21  1  1  0  0  0
 18 17  1  0  0  0  0
 19 17  1  0  0  0  0
 20 19  1  0  0  0  0
 21 22  1  1  0  0  0
 23 24  1  0  0  0  0
 23 21  1  0  0  0  0
M  END
