
 OpenBabel05282414553D

 30 30  0  0  1  0  0  0  0  0999 V2000
   -3.9693    9.2435   -1.6796 H   0  0  0  0  0  0  0  0  0  0  0  0
   -4.2435    9.5920   -2.5442 O   0  0  0  0  0  0  0  0  0  0  0  0
   -3.8774   10.9620   -2.5184 C   0  0  2  0  0  0  0  0  0  0  0  0
   -2.7820   11.0070   -2.4715 H   0  0  0  0  0  0  0  0  0  0  0  0
   -4.4216   11.5240   -1.3357 O   0  0  0  0  0  0  0  0  0  0  0  0
   -4.1078   12.9237   -1.1940 C   0  0  2  0  0  0  0  0  0  0  0  0
   -3.0141   13.0093   -1.1441 H   0  0  0  0  0  0  0  0  0  0  0  0
   -4.6976   13.3953    0.1369 C   0  0  0  0  0  0  0  0  0  0  0  0
   -5.7675   13.1773    0.2119 H   0  0  0  0  0  0  0  0  0  0  0  0
   -4.5386   14.4679    0.2827 H   0  0  0  0  0  0  0  0  0  0  0  0
   -4.0443   12.7066    1.2069 O   0  0  0  0  0  0  0  0  0  0  0  0
   -4.2178   11.7597    1.0468 H   0  0  0  0  0  0  0  0  0  0  0  0
   -4.6454   13.7349   -2.3775 C   0  0  2  0  0  0  0  0  0  0  0  0
   -4.3612   14.7890   -2.2812 H   0  0  0  0  0  0  0  0  0  0  0  0
   -6.0775   13.7040   -2.4119 O   0  0  0  0  0  0  0  0  0  0  0  0
   -6.3253   14.0637   -3.2886 H   0  0  0  0  0  0  0  0  0  0  0  0
   -4.1028   13.1649   -3.6940 C   0  0  2  0  0  0  0  0  0  0  0  0
   -3.0206   13.3408   -3.7422 H   0  0  0  0  0  0  0  0  0  0  0  0
   -4.7038   13.9061   -4.7649 O   0  0  0  0  0  0  0  0  0  0  0  0
   -4.1680   13.7283   -5.5600 H   0  0  0  0  0  0  0  0  0  0  0  0
   -4.3959   11.6541   -3.8088 C   0  0  1  0  0  0  0  0  0  0  0  0
   -5.4745   11.4861   -3.8994 H   0  0  0  0  0  0  0  0  0  0  0  0
   -3.7585   11.0715   -5.0093 N   0  0  0  0  0  0  0  0  0  0  0  0
   -4.2133   10.9676   -6.2859 C   0  0  0  0  0  0  0  0  0  0  0  0
   -2.9395   10.4901   -4.8632 H   0  0  0  0  0  0  0  0  0  0  0  0
   -3.5211   10.3635   -7.1045 O   0  0  0  0  0  0  0  0  0  0  0  0
   -5.4967   11.6330   -6.6982 C   0  0  0  0  0  0  0  0  0  0  0  0
   -6.1765   11.8034   -5.8644 H   0  0  0  0  0  0  0  0  0  0  0  0
   -6.0108   10.9889   -7.4180 H   0  0  0  0  0  0  0  0  0  0  0  0
   -5.2644   12.5860   -7.1811 H   0  0  0  0  0  0  0  0  0  0  0  0
  2  3  1  0  0  0  0
  2  1  1  0  0  0  0
  3 21  1  6  0  0  0
  3  5  1  0  0  0  0
  4  3  1  0  0  0  0
  5  6  1  0  0  0  0
  6 13  1  6  0  0  0
  6  8  1  0  0  0  0
  7  6  1  0  0  0  0
  8 10  1  0  0  0  0
  8  9  1  0  0  0  0
  8 11  1  0  0  0  0
 12 11  1  0  0  0  0
 13 17  1  6  0  0  0
 13 15  1  0  0  0  0
 14 13  1  0  0  0  0
 16 15  1  0  0  0  0
 17 21  1  6  0  0  0
 18 17  1  0  0  0  0
 19 17  1  0  0  0  0
 20 19  1  0  0  0  0
 21 22  1  6  0  0  0
 23 21  1  0  0  0  0
 23 24  1  0  0  0  0
 23 25  1  0  0  0  0
 24 26  2  0  0  0  0
 24 27  1  0  0  0  0
 27 28  1  0  0  0  0
 27 29  1  0  0  0  0
 27 30  1  0  0  0  0
M  END
